**$ENCRYPTED_LIB
**$INTERFACE
*$
*$
.subckt TEST_RES 1 2
$CDNENCSTART_ADV2
17f62b1fb318c25603aeb85644ae98a5d179ef807807791f6459efacb9d7ffc37a831b146dc0f06bb1ef275619162e6d8f7ad0dc708bf15ae1a1d5bd0ae623b2
dbac24c925e4202f46036da0f3d509f0c9644889f4422df9f75f35669182f1af947edac4922a07602a3fc6e9060494c38f8d2ce2510c572624e6c29966438613
$CDNENCFINISH_ADV2
.ends TEST_RES
