**$ENCRYPTED_LIB
**$INTERFACE
*$
*$
.subckt TEST_RES 1 2
$CDNENCSTART_USER_ADV3
8418bc6a5efbbed5f14ea833e137c2e60c3b4f796480b487637d0948cd0b9338ce29ff6ed6ed3300562020edb89845dafe9e852254484105812fc6ed77d33038
0f2e2b76d94fe994d69d1d237ac93fb10181a8e5d8a0ef67edaafb7913f93bef99614b56584c00ceb2a083211fff1b52b4fed14435faf9b773838bd66731675b
$CDNENCFINISH_USER_ADV3
.ends TEST_RES
