**$ENCRYPTED_LIB
**$INTERFACE
*$
*$
.subckt TEST_RES 1 2
$CDNENCSTART
eee8c5c7a2bc4b01f045f303678664e7916da0bae22e8cb0bba041dd67c69ce448ea70148a9ac1670c8926c1ac5057c8ccfcd77bf87ca9dc6355c1192c735fa5
a0388be4342614f5f81201e5bb91a9692329e92554bac8f3a0e177582f348479b90dcc754abdf51c4fd76f2d709b2b3266ac233ca8c7f7a797bbfb320a9881e6
$CDNENCFINISH
.ends TEST_RES
