**$ENCRYPTED_LIB
**$INTERFACE
*$
*$
.subckt TEST_RES 1 2
$CDNENCSTART_ADV1
ae1a35865cb3be11a5c981063459615b1402a029d40d0cfc1d684eb8fa9761864ef3e98c6a86d70ccbf78e83028df13166981d0ef6ea7122e1bfd795e0b615a2
ad13d9c8d8510bf7fd739dad643785ee03693793ffa5f106787eb3b6df09429803208bcf6b6e057de6d82560ab3ac27ec171b9797126288514d31e50300c7f7a
$CDNENCFINISH_ADV1
.ends TEST_RES
