**$ENCRYPTED_LIB
**$INTERFACE
*$
*$
.subckt TEST_RES 1 2
$CDNENCSTART_ADV3
4ad47fc6ea0161a7bbe517523c13a846a0f8e66a98a1a238959753a6b63b1d1263ca6170e9d37bfb8193cfad805cdb5a0f23c916015dd29f82e78792895f6828
de44520d1c5ea86c83e75130b4d5bf89344064751ef58f486b8b7cd2b03dce2be8256c228d99598c3d8f688cd1589b641b77aadb813a4824eaaeeb86b648656c
$CDNENCFINISH_ADV3
.ends TEST_RES
